          84
    9.220    7.540   10.350   90.900  109.300   90.000    0 #MP2/aVDZ ice5, only partially optimized and without applied pressure
O       9.31419199      7.49936814      0.03090032
H       9.41084396      7.95833189     -0.83776950
H       9.45732841      8.19323268      0.72663163
O       6.47864242      1.15210012      7.37520520
H       6.75151026      0.61009431      6.58394085
H       5.81282142      1.75063584      6.93701509
O       1.77473375      3.86195841      7.37554525
H       2.36928006      3.23271636      7.86788727
H       1.41088646      4.38357574      8.14413794
O       5.04442984      2.90017211      5.92629176
H       4.20577968      2.50291833      5.57807767
H       4.81409748      3.72818569      6.42028774
O       3.13486417      2.08659954      8.85704927
H       3.32642744      1.24911531      8.35908583
H       3.98136715      2.46225250      9.20978173
O       0.66131827      1.27861312      9.84945705
H       1.53277514      1.66964993      9.59548418
H      -0.00887195      1.96060424      9.58756590
O       1.23307115      5.03445031      9.83376361
H       1.34484351      4.40060913     10.58870218
H       1.85599008      5.75570164     10.09183484
O       2.31887308      5.18704110      4.97963884
H       2.19692928      4.73294308      5.85222287
H       2.19493731      4.48262209      4.29482701
O       5.23083199      3.62514923      9.79718951
H       5.04909154      3.97026939     10.71224345
H       6.17088002      3.33368803      9.78075992
O       2.96421924      1.32529716      4.99053147
H       3.13156136      1.00243625      4.06417689
H       2.02160923      1.60380772      5.03421571
O       4.99875800      5.16113660      7.48365382
H       4.93612549      4.70267502      8.35614338
H       5.96722446      5.36579004      7.44513483
O       6.96781693      7.48671608      4.93483366
H       6.33759889      6.77945592      4.66305137
H       6.90684850      8.12085729      4.17550066
O       3.22625991      7.40479445      7.29824039
H       3.23116216      7.78474504      6.38401822
H       3.80838353      6.60255936      7.30060334
O       0.42956414      7.30672466      7.46046010
H       0.33850684      7.69525701      8.36586442
H       1.40557889      7.18116131      7.38519049
O       8.10063374      4.92097890      2.47709650
H       7.81360374      4.43781271      3.29482675
H       8.73751869      5.57505639      2.88695524
O      -1.67307494      3.72799065      4.94072888
H      -2.54909530      3.35958075      5.21346647
H      -1.01092168      3.03041678      5.17584154
O      -1.45073471      5.21406713      7.29267024
H      -0.78910794      5.95230059      7.30593023
H      -1.38811429      4.82686944      6.38393307
O       0.26901569      6.75517249      3.90924097
H       1.04642789      6.36480691      4.38013517
H      -0.41183552      6.97474895      4.59263842
O      -1.38919446      2.89678192      8.92098887
H      -1.81940158      2.22789981      8.32086407
H      -1.33277893      3.69823691      8.34835070
O       0.28704520      1.50749870      2.27263311
H       0.45649769      0.75335394      2.88713426
H      -0.67963994      1.68447675      2.41668350
O       4.82331763      5.91529169      3.97580921
H       4.04542540      5.72301035      4.55413384
H       4.46797045      6.63902020      3.40418540
O       3.44802722      0.24047704      2.51796391
H       3.80992304      0.71753454      1.72482748
H       2.86887122     -0.43604694      2.07111686
O       6.75351020      1.49163686      2.64413416
H       6.57091500      0.78322084      1.97492692
H       6.11325040      2.22686328      2.48931138
O       0.37848198      2.09846015      5.83174790
H       0.79747089      2.77111229      6.43396384
H       0.23924910      1.32285067      6.42573856
O       2.05995555      3.65538541      2.75091284
H       1.50684921      2.88927518      2.46212466
H       1.93492999      4.36526351      2.07914471
O       4.88623312      3.65128831      2.39003398
H       5.03415154      4.42526250      2.99702963
H       3.93134362      3.46695454      2.53911368
O       2.09477804      5.91539775      1.08778987
H       1.35352288      6.32098866      0.56748861
H       2.80570284      5.65483435      0.45445513
O       6.74627191      6.78977078      1.03437628
H       7.53267434      6.99298629      0.48014287
H       7.11376106      6.07485476      1.62253933
